[Format]      =  4.0
[Frequency]   =  0
[Precision]   =  1e-008
[MinAngle]    =  30
[DoSmartMesh] =  1
[Depth]       =  1
[LengthUnits] =  millimeters
[ProblemType] =  axisymmetric
[extZo] = 4.5
[extRo] = 0.5
[extRi] = 1.5
[Coordinates] =  cartesian
[ACSolver]    =  0
[PrevType]    =  0
[PrevSoln]    =  ""
[Comment]     =  "Add comments here."
[PointProps]   = 0
[BdryProps]   = 1
  <BeginBdry>
    <BdryName> = "New Boundary"
    <BdryType> = 4
    <A_0> = 0
    <A_1> = 0
    <A_2> = 0
    <Phi> = 0
    <c0> = 0
    <c0i> = 0
    <c1> = 0
    <c1i> = 0
    <Mu_ssd> = 0
    <Sigma_ssd> = 0
    <innerangle> = 0
    <outerangle> = 0
  <EndBdry>
[BlockProps]  = 2
  <BeginBlock>
    <BlockName> = "Air"
    <Mu_x> = 1
    <Mu_y> = 1
    <H_c> = 0
    <H_cAngle> = 0
    <J_re> = 0
    <J_im> = 0
    <Sigma> = 0
    <d_lam> = 0
    <Phi_h> = 0
    <Phi_hx> = 0
    <Phi_hy> = 0
    <LamType> = 0
    <LamFill> = 1
    <NStrands> = 0
    <WireD> = 0
    <BHPoints> = 0
  <EndBlock>
  <BeginBlock>
    <BlockName> = "NdFeB 52 MGOe"
    <Mu_x> = 1.05
    <Mu_y> = 1.05
    <H_c> = 891300
    <H_cAngle> = 0
    <J_re> = 0
    <J_im> = 0
    <Sigma> = 0.66700000000000004
    <d_lam> = 0
    <Phi_h> = 0
    <Phi_hx> = 0
    <Phi_hy> = 0
    <LamType> = 0
    <LamFill> = 1
    <NStrands> = 0
    <WireD> = 0
    <BHPoints> = 6
      0	0
      0.42799999999999999	95490
      0.53300000000000003	175100
      0.63800000000000001	254600
      0.84799999999999998	413800
      1.478	891300
  <EndBlock>
[CircuitProps]  = 0
[NumPoints] = 8
0	0	0	0
0	3	0	0
0	4	0	0
0	5	0	0
0	2	0	0
0.5	2	0	0
0.5	1	0	0
0	1	0	0
[NumSegments] = 7
3	2	-1	0	0	0
1	4	-1	0	0	0
4	7	-1	0	0	0
7	0	-1	0	0	0
4	5	-1	0	0	0
5	6	-1	0	0	0
6	7	-1	0	0	0
[NumArcSegments] = 2
0	1	180	1	1	0	0	0.93999999999999995
2	3	180	1	1	0	0	0.93999999999999995
[NumHoles] = 0
[NumBlockLabels] = 3
1	2	1	-1	0	0	0	1	0
0.26000000000000001	4.5199999999999996	1	-1	0	0	0	1	0
0.25	1.5	2	-1	0	90	1	1	0
