[Format]      =  4.0
[Frequency]   =  0
[Precision]   =  1e-010
[MinAngle]    =  30
[DoSmartMesh] =  1
[Depth]       =  1
[LengthUnits] =  millimeters
[ProblemType] =  axisymmetric
[extZo] = 201.70738955692235
[extRo] = 16.808949129743532
[extRi] = 168.0894912974353
[Coordinates] =  cartesian
[ACSolver]    =  0
[PrevType]    =  0
[PrevSoln]    =  ""
[Comment]     =  "Add comments here."
[PointProps]   = 0
[BdryProps]   = 1
  <BeginBdry>
    <BdryName> = "Kelvin_Boundry"
    <BdryType> = 4
    <A_0> = 0
    <A_1> = 0
    <A_2> = 0
    <Phi> = 0
    <c0> = 0
    <c0i> = 0
    <c1> = 0
    <c1i> = 0
    <Mu_ssd> = 0
    <Sigma_ssd> = 0
    <innerangle> = 0
    <outerangle> = 0
  <EndBdry>
[BlockProps]  = 6
  <BeginBlock>
    <BlockName> = "NdFeB 40 MGOe"
    <Mu_x> = 1.0489999999999999
    <Mu_y> = 1.0489999999999999
    <H_c> = 979000
    <H_cAngle> = 0
    <J_re> = 0
    <J_im> = 0
    <Sigma> = 0.66700000000000004
    <d_lam> = 0
    <Phi_h> = 0
    <Phi_hx> = 0
    <Phi_hy> = 0
    <LamType> = 0
    <LamFill> = 1
    <NStrands> = 0
    <WireD> = 0
    <BHPoints> = 0
  <EndBlock>
  <BeginBlock>
    <BlockName> = "416 Stainless Steel"
    <Mu_x> = 440
    <Mu_y> = 440
    <H_c> = 0
    <H_cAngle> = 0
    <J_re> = 0
    <J_im> = 0
    <Sigma> = 0
    <d_lam> = 0
    <Phi_h> = 0
    <Phi_hx> = 0
    <Phi_hy> = 0
    <LamType> = 0
    <LamFill> = 1
    <NStrands> = 0
    <WireD> = 0
    <BHPoints> = 12
      0	0
      0.20039999999999999	318.31
      0.42559999999999998	477.46499999999997
      0.76100000000000001	795.77499999999998
      1.097	1591.55
      1.2330000000000001	2387.3249999999998
      1.335	3978.875
      1.46	7957.75
      1.5900000000000001	15915.5
      1.6899999999999999	31831
      1.724232	44456.279999999999
      1.74	55704.25
  <EndBlock>
  <BeginBlock>
    <BlockName> = "COIL_P"
    <Mu_x> = 1
    <Mu_y> = 1
    <H_c> = 0
    <H_cAngle> = 0
    <J_re> = 10
    <J_im> = 0
    <Sigma> = 0
    <d_lam> = 0
    <Phi_h> = 0
    <Phi_hx> = 0
    <Phi_hy> = 0
    <LamType> = 0
    <LamFill> = 1
    <NStrands> = 0
    <WireD> = 0
    <BHPoints> = 0
  <EndBlock>
  <BeginBlock>
    <BlockName> = "COIL_N"
    <Mu_x> = 1
    <Mu_y> = 1
    <H_c> = 0
    <H_cAngle> = 0
    <J_re> = -10
    <J_im> = 0
    <Sigma> = 0
    <d_lam> = 0
    <Phi_h> = 0
    <Phi_hx> = 0
    <Phi_hy> = 0
    <LamType> = 0
    <LamFill> = 1
    <NStrands> = 0
    <WireD> = 0
    <BHPoints> = 0
  <EndBlock>
  <BeginBlock>
    <BlockName> = "416 Stainless Steel"
    <Mu_x> = 440
    <Mu_y> = 440
    <H_c> = 0
    <H_cAngle> = 0
    <J_re> = 0
    <J_im> = 0
    <Sigma> = 0
    <d_lam> = 0
    <Phi_h> = 0
    <Phi_hx> = 0
    <Phi_hy> = 0
    <LamType> = 0
    <LamFill> = 1
    <NStrands> = 0
    <WireD> = 0
    <BHPoints> = 12
      0	0
      0.20039999999999999	318.31
      0.42559999999999998	477.46499999999997
      0.76100000000000001	795.77499999999998
      1.097	1591.55
      1.2330000000000001	2387.3249999999998
      1.335	3978.875
      1.46	7957.75
      1.5900000000000001	15915.5
      1.6899999999999999	31831
      1.724232	44456.279999999999
      1.74	55704.25
  <EndBlock>
  <BeginBlock>
    <BlockName> = "Air"
    <Mu_x> = 1
    <Mu_y> = 1
    <H_c> = 0
    <H_cAngle> = 0
    <J_re> = 0
    <J_im> = 0
    <Sigma> = 0
    <d_lam> = 0
    <Phi_h> = 0
    <Phi_hx> = 0
    <Phi_hy> = 0
    <LamType> = 0
    <LamFill> = 1
    <NStrands> = 0
    <WireD> = 0
    <BHPoints> = 0
  <EndBlock>
[CircuitProps]  = 0
[NumPoints] = 26
1.27	-3.1749999999999998	0	3
1.27	3.1749999999999998	0	3
3.2250000000000001	3.1749999999999998	0	3
3.2250000000000001	-3.1749999999999998	0	3
1.27	7.3260767673176046	0	3
3.2250000000000001	7.3260767673176046	0	3
1.27	-7.3260767673176046	0	3
3.2250000000000001	-7.3260767673176046	0	3
4.7624999999999993	2.3880387204750892	0	3
4.7624999999999993	8.1130380468425152	0	3
38.896661606361512	8.1130380468425152	0	3
38.896661606361512	2.3880387204750892	0	3
4.7624999999999993	-8.1130380468425152	0	3
4.7624999999999993	-2.3880387204750892	0	3
38.896661606361512	-2.3880387204750892	0	3
38.896661606361512	-8.1130380468425152	0	3
38.896661606361512	-138.83136803350715	0	3
38.896661606361512	138.83136803350715	0	3
-18.620905302151115	138.83136803350715	0	3
-18.620905302151115	-138.83136803350715	0	3
0	-168.0894912974353	0	0
0	168.0894912974353	0	0
0	138.83136803350715	0	0
0	-138.83136803350715	0	0
0	184.89844042717883	0	0
0	218.51633868666588	0	0
[NumSegments] = 30
0	1	-1	0	0	3
1	2	-1	0	0	3
2	3	-1	0	0	3
3	0	-1	0	0	3
4	1	-1	0	0	3
4	5	-1	0	0	3
5	2	-1	0	0	3
6	0	-1	0	0	3
6	7	-1	0	0	3
7	3	-1	0	0	3
8	9	-1	0	0	3
9	10	-1	0	0	3
10	11	-1	0	0	3
11	8	-1	0	0	3
12	13	-1	0	0	3
13	14	-1	0	0	3
14	15	-1	0	0	3
15	12	-1	0	0	3
16	15	-1	0	0	3
14	11	-1	0	0	3
10	17	-1	0	0	3
17	22	-1	0	0	3
18	19	-1	0	0	3
19	23	-1	0	0	3
22	18	-1	0	0	3
23	16	-1	0	0	3
20	23	-1	0	0	0
23	22	-1	0	0	0
22	21	-1	0	0	0
24	25	-1	0	0	0
[NumArcSegments] = 2
20	21	180	1	0	0	0	1
24	25	180	1	0	0	0	1
[NumHoles] = 0
[NumBlockLabels] = 8
2.2475000000000001	0	1	-1	0	90	3	1	0
2.2475000000000001	5.2505383836588022	5	-1	0	0	3	1	0
2.2475000000000001	-5.2505383836588022	5	-1	0	0	3	1	0
21.829580803180754	5.2505383836588022	3	-1	0	0	3	1	0
21.829580803180754	-5.2505383836588022	4	-1	0	0	3	1	0
10.137878152105198	0	5	-1	0	0	3	1	0
-20.482995832366228	0	6	-1	0	0	0	1	0
8.4044745648717658	201.70738955692235	6	-1	0	0	0	1	0
