[Format]      =  4.0
[Frequency]   =  0
[Precision]   =  1e-010
[MinAngle]    =  30
[DoSmartMesh] =  1
[Depth]       =  1
[LengthUnits] =  millimeters
[ProblemType] =  axisymmetric
[extZo] = 43.313975774502644
[extRo] = 3.6094979812085541
[extRi] = 36.094979812085541
[Coordinates] =  cartesian
[ACSolver]    =  0
[PrevType]    =  0
[PrevSoln]    =  ""
[Comment]     =  "Add comments here."
[PointProps]   = 0
[BdryProps]   = 1
  <BeginBdry>
    <BdryName> = "Kelvin_Boundry"
    <BdryType> = 4
    <A_0> = 0
    <A_1> = 0
    <A_2> = 0
    <Phi> = 0
    <c0> = 0
    <c0i> = 0
    <c1> = 0
    <c1i> = 0
    <Mu_ssd> = 0
    <Sigma_ssd> = 0
    <innerangle> = 0
    <outerangle> = 0
  <EndBdry>
[BlockProps]  = 6
  <BeginBlock>
    <BlockName> = "NdFeB 40 MGOe"
    <Mu_x> = 1.0489999999999999
    <Mu_y> = 1.0489999999999999
    <H_c> = 979000
    <H_cAngle> = 0
    <J_re> = 0
    <J_im> = 0
    <Sigma> = 0.66700000000000004
    <d_lam> = 0
    <Phi_h> = 0
    <Phi_hx> = 0
    <Phi_hy> = 0
    <LamType> = 0
    <LamFill> = 1
    <NStrands> = 0
    <WireD> = 0
    <BHPoints> = 0
  <EndBlock>
  <BeginBlock>
    <BlockName> = "416 Stainless Steel"
    <Mu_x> = 440
    <Mu_y> = 440
    <H_c> = 0
    <H_cAngle> = 0
    <J_re> = 0
    <J_im> = 0
    <Sigma> = 0
    <d_lam> = 0
    <Phi_h> = 0
    <Phi_hx> = 0
    <Phi_hy> = 0
    <LamType> = 0
    <LamFill> = 1
    <NStrands> = 0
    <WireD> = 0
    <BHPoints> = 12
      0	0
      0.20039999999999999	318.31
      0.42559999999999998	477.46499999999997
      0.76100000000000001	795.77499999999998
      1.097	1591.55
      1.2330000000000001	2387.3249999999998
      1.335	3978.875
      1.46	7957.75
      1.5900000000000001	15915.5
      1.6899999999999999	31831
      1.724232	44456.279999999999
      1.74	55704.25
  <EndBlock>
  <BeginBlock>
    <BlockName> = "COIL_P"
    <Mu_x> = 1
    <Mu_y> = 1
    <H_c> = 0
    <H_cAngle> = 0
    <J_re> = 10
    <J_im> = 0
    <Sigma> = 0
    <d_lam> = 0
    <Phi_h> = 0
    <Phi_hx> = 0
    <Phi_hy> = 0
    <LamType> = 0
    <LamFill> = 1
    <NStrands> = 0
    <WireD> = 0
    <BHPoints> = 0
  <EndBlock>
  <BeginBlock>
    <BlockName> = "COIL_N"
    <Mu_x> = 1
    <Mu_y> = 1
    <H_c> = 0
    <H_cAngle> = 0
    <J_re> = -10
    <J_im> = 0
    <Sigma> = 0
    <d_lam> = 0
    <Phi_h> = 0
    <Phi_hx> = 0
    <Phi_hy> = 0
    <LamType> = 0
    <LamFill> = 1
    <NStrands> = 0
    <WireD> = 0
    <BHPoints> = 0
  <EndBlock>
  <BeginBlock>
    <BlockName> = "416 Stainless Steel"
    <Mu_x> = 440
    <Mu_y> = 440
    <H_c> = 0
    <H_cAngle> = 0
    <J_re> = 0
    <J_im> = 0
    <Sigma> = 0
    <d_lam> = 0
    <Phi_h> = 0
    <Phi_hx> = 0
    <Phi_hy> = 0
    <LamType> = 0
    <LamFill> = 1
    <NStrands> = 0
    <WireD> = 0
    <BHPoints> = 12
      0	0
      0.20039999999999999	318.31
      0.42559999999999998	477.46499999999997
      0.76100000000000001	795.77499999999998
      1.097	1591.55
      1.2330000000000001	2387.3249999999998
      1.335	3978.875
      1.46	7957.75
      1.5900000000000001	15915.5
      1.6899999999999999	31831
      1.724232	44456.279999999999
      1.74	55704.25
  <EndBlock>
  <BeginBlock>
    <BlockName> = "Air"
    <Mu_x> = 1
    <Mu_y> = 1
    <H_c> = 0
    <H_cAngle> = 0
    <J_re> = 0
    <J_im> = 0
    <Sigma> = 0
    <d_lam> = 0
    <Phi_h> = 0
    <Phi_hx> = 0
    <Phi_hy> = 0
    <LamType> = 0
    <LamFill> = 1
    <NStrands> = 0
    <WireD> = 0
    <BHPoints> = 0
  <EndBlock>
[CircuitProps]  = 0
[NumPoints] = 24
1.27	-3.1749999999999998	0	1
1.27	3.1749999999999998	0	1
3.2250000000000001	3.1749999999999998	0	1
3.2250000000000001	-3.1749999999999998	0	1
1.27	8.9876545280000002	0	1
3.2250000000000001	8.9876545280000002	0	1
1.27	-8.9876545280000002	0	1
3.2250000000000001	-8.9876545280000002	0	1
4.7624999999999993	1.1963863600000018	0	2
4.7624999999999993	10.966268167999999	0	2
11.147496800000011	10.966268167999999	0	3
11.147496800000011	1.1963863600000018	0	3
4.7624999999999993	-10.966268167999999	0	2
4.7624999999999993	-1.1963863600000018	0	2
11.147496800000011	-1.1963863600000018	0	3
11.147496800000011	-10.966268167999999	0	3
11.147496800000011	-17.595762176000008	0	3
11.147496800000011	17.595762176000008	0	3
14.29847977600001	17.595762176000008	0	3
14.29847977600001	-17.595762176000008	0	3
0	-36.094979812085541	0	0
0	36.094979812085541	0	0
0	39.704477793294089	0	0
0	46.9234737557112	0	0
[NumSegments] = 26
0	1	-1	0	0	1
1	2	-1	0	0	1
2	3	-1	0	0	1
3	0	-1	0	0	1
4	1	-1	0	0	1
4	5	-1	0	0	1
5	2	-1	0	0	1
6	0	-1	0	0	1
6	7	-1	0	0	1
7	3	-1	0	0	1
8	9	-1	0	0	2
9	10	-1	0	0	2
10	11	-1	0	0	3
11	8	-1	0	0	2
12	13	-1	0	0	2
13	14	-1	0	0	2
14	15	-1	0	0	3
15	12	-1	0	0	2
16	15	-1	0	0	3
14	11	-1	0	0	3
10	17	-1	0	0	3
17	18	-1	0	0	3
18	19	-1	0	0	3
19	16	-1	0	0	3
20	21	-1	0	0	0
22	23	-1	0	0	0
[NumArcSegments] = 2
20	21	180	1	0	0	0	1
22	23	180	1	0	0	0	1
[NumHoles] = 0
[NumBlockLabels] = 8
2.2475000000000001	0	1	-1	0	90	1	1	0
2.2475000000000001	6.0813272640000005	5	-1	0	0	1	1	0
2.2475000000000001	-6.0813272640000005	5	-1	0	0	1	1	0
7.9549984000000054	6.0813272640000005	3	-1	0	0	2	1	0
7.9549984000000054	-6.0813272640000005	4	-1	0	0	2	1	0
12.72298828800001	0	5	-1	0	0	3	1	0
15.728327753600011	0	6	-1	0	0	0	1	0
1.8047489906042771	43.313975774502644	6	-1	0	0	0	1	0
